[Format]      =  4.0
[Frequency]   =  0
[Precision]   =  1e-008
[MinAngle]    =  30
[DoSmartMesh] =  1
[Depth]       =  1
[LengthUnits] =  millimeters
[ProblemType] =  planar
[Coordinates] =  cartesian
[ACSolver]    =  0
[PrevType]    =  0
[PrevSoln]    =  ""
[Comment]     =  "Add comments here."
[PointProps]   = 0
[BdryProps]   = 1
  <BeginBdry>
    <BdryName> = "Headphones"
    <BdryType> = 2
    <A_0> = 0
    <A_1> = 0
    <A_2> = 0
    <Phi> = 0
    <c0> = 0
    <c0i> = 0
    <c1> = 0
    <c1i> = 0
    <Mu_ssd> = 0
    <Sigma_ssd> = 0
    <innerangle> = 0
    <outerangle> = 0
  <EndBdry>
[BlockProps]  = 3
  <BeginBlock>
    <BlockName> = "Neodymium Magnets N35"
    <Mu_x> = 1
    <Mu_y> = 1
    <H_c> = 0
    <H_cAngle> = 0
    <J_re> = 0
    <J_im> = 0
    <Sigma> = 0
    <d_lam> = 0
    <Phi_h> = 0
    <Phi_hx> = 0
    <Phi_hy> = 0
    <LamType> = 0
    <LamFill> = 1
    <NStrands> = 0
    <WireD> = 0
    <BHPoints> = 0
  <EndBlock>
  <BeginBlock>
    <BlockName> = "Air"
    <Mu_x> = 1
    <Mu_y> = 1
    <H_c> = 0
    <H_cAngle> = 0
    <J_re> = 0
    <J_im> = 0
    <Sigma> = 0
    <d_lam> = 0
    <Phi_h> = 0
    <Phi_hx> = 0
    <Phi_hy> = 0
    <LamType> = 0
    <LamFill> = 1
    <NStrands> = 0
    <WireD> = 0
    <BHPoints> = 0
  <EndBlock>
  <BeginBlock>
    <BlockName> = "N35"
    <Mu_x> = 1.05
    <Mu_y> = 1.05
    <H_c> = 905659
    <H_cAngle> = 0
    <J_re> = 0
    <J_im> = 0
    <Sigma> = 0.66700000000000004
    <d_lam> = 0
    <Phi_h> = 0
    <Phi_hx> = 0
    <Phi_hy> = 0
    <LamType> = 0
    <LamFill> = 1
    <NStrands> = 0
    <WireD> = 0
    <BHPoints> = 0
  <EndBlock>
[CircuitProps]  = 0
[NumPoints] = 62
-780	400	0	0
580	400	0	0
580	-330	0	0
-780	-320	0	0
-26	6	0	0
-26	3	0	0
-21	6	0	0
-21	3	0	0
-21	8	0	0
-18	8	0	0
-18	3	0	0
-18	6	0	0
-13	6	0	0
-13	3	0	0
-13	8	0	0
-10	8	0	0
-10	3	0	0
-10	6	0	0
-5	6	0	0
-5	3	0	0
-5	8	0	0
-2	8	0	0
-2	3	0	0
-2	6	0	0
3	6	0	0
3	3	0	0
3	8	0	0
6	8	0	0
6	3	0	0
6	6	0	0
11	6	0	0
11	3	0	0
11	-3.0000000000000036	0	0
11	-3.1086244689504383e-015	0	0
6	-3.0000000000000027	0	0
6	-2.6645352591003757e-015	0	0
6	-5.0000000000000018	0	0
3	-5.0000000000000018	0	0
3	-2.2204460492503131e-015	0	0
3	-3.0000000000000018	0	0
-2	-3.0000000000000018	0	0
-2	-1.7763568394002505e-015	0	0
-2.0000000000000018	-5.0000000000000018	0	0
-5.0000000000000018	-5.0000000000000018	0	0
-5	-1.3322676295501878e-015	0	0
-5	-3.0000000000000009	0	0
-10	-3.0000000000000009	0	0
-10	-4.4408920985006262e-016	0	0
-10	-5	0	0
-13	-5	0	0
-13	-4.4408920985006262e-016	0	0
-13	-3	0	0
-18	-3	0	0
-18	4.4408920985006262e-016	0	0
-18	-5	0	0
-21	-4.9999999999999991	0	0
-21	8.8817841970012523e-016	0	0
-21	-2.9999999999999991	0	0
-26	-2.9999999999999982	0	0
-26	1.3322676295501878e-015	0	0
-26	1.5	0	0
11	1.5	0	0
[NumSegments] = 76
0	1	-1	0	0	0
2	1	-1	0	0	0
3	2	-1	0	0	0
0	3	-1	0	0	0
4	5	-1	0	0	0
7	6	-1	0	0	0
4	6	-1	0	0	0
5	7	-1	0	0	0
7	10	-1	0	0	0
8	6	-1	0	0	0
9	8	-1	0	0	0
10	11	-1	0	0	0
11	9	-1	0	0	0
11	12	-1	0	0	0
10	13	-1	0	0	0
13	12	-1	0	0	0
12	14	-1	0	0	0
14	15	-1	0	0	0
15	17	-1	0	0	0
17	16	-1	0	0	0
13	16	-1	0	0	0
17	18	-1	0	0	0
16	19	-1	0	0	0
19	18	-1	0	0	0
18	20	-1	0	0	0
20	21	-1	0	0	0
19	22	-1	0	0	0
22	23	-1	0	0	0
23	21	-1	0	0	0
23	24	-1	0	0	0
22	25	-1	0	0	0
25	24	-1	0	0	0
24	26	-1	0	0	0
26	27	-1	0	0	0
27	29	-1	0	0	0
29	28	-1	0	0	0
25	28	-1	0	0	0
28	31	-1	0	0	0
29	30	-1	0	0	0
31	30	-1	0	0	0
32	33	-1	0	0	0
35	34	-1	0	0	0
32	34	-1	0	0	0
33	35	-1	0	0	0
35	38	-1	0	0	0
36	34	-1	0	0	0
37	36	-1	0	0	0
38	39	-1	0	0	0
39	37	-1	0	0	0
39	40	-1	0	0	0
38	41	-1	0	0	0
41	40	-1	0	0	0
40	42	-1	0	0	0
42	43	-1	0	0	0
43	45	-1	0	0	0
45	44	-1	0	0	0
41	44	-1	0	0	0
45	46	-1	0	0	0
44	47	-1	0	0	0
47	46	-1	0	0	0
46	48	-1	0	0	0
48	49	-1	0	0	0
47	50	-1	0	0	0
50	51	-1	0	0	0
51	49	-1	0	0	0
51	52	-1	0	0	0
50	53	-1	0	0	0
53	52	-1	0	0	0
52	54	-1	0	0	0
54	55	-1	0	0	0
55	57	-1	0	0	0
57	56	-1	0	0	0
53	56	-1	0	0	0
56	59	-1	0	0	0
57	58	-1	0	0	0
59	58	-1	0	0	0
[NumArcSegments] = 0
[NumHoles] = 0
[NumBlockLabels] = 19
-23.34	4.4000000000000004	3	-1	0	-90	0	1	0
-3.23	4.6299999999999999	3	-1	0	-180	0	1	0
-17.600000000000001	24	2	-1	0	0	0	1	0
-20	5	3	-1	0	-180	0	1	0
-15	5	3	-1	0	90	0	1	0
-12	5	3	-1	0	0	0	1	0
-8	5	3	-1	0	-90	0	1	0
0	5	3	-1	0	90	0	1	0
4	5	3	-1	0	0	0	1	0
8	5	3	-1	0	-90	0	1	0
8.3399999999999999	-1.400000000000003	3	-1	0	90	0	1	0
-11.77	-1.6299999999999999	3	-1	0	0	0	1	0
0	-2.0000000000000018	3	-1	0	270	0	1	0
-7.0000000000000009	-2.0000000000000009	3	-1	0	90	0	1	0
-15	-2	3	-1	0	270	0	1	0
-23	-1.9999999999999991	3	-1	0	90	0	1	0
-19.629999999999999	-2.4300000000000002	3	-1	0	-180	0	1	0
-3.4199999999999999	-1.74	3	-1	0	-180	0	1	0
4.7999999999999998	-2.23	3	-1	0	0	0	1	0
