[Format]      =  4.0
[Frequency]   =  0
[Precision]   =  1e-008
[MinAngle]    =  30
[DoSmartMesh] =  1
[Depth]       =  1
[LengthUnits] =  millimeters
[ProblemType] =  planar
[Coordinates] =  cartesian
[ACSolver]    =  0
[PrevType]    =  0
[PrevSoln]    =  ""
[Comment]     =  "Add comments here."
[PointProps]   = 0
[BdryProps]   = 1
  <BeginBdry>
    <BdryName> = "Headphones"
    <BdryType> = 2
    <A_0> = 0
    <A_1> = 0
    <A_2> = 0
    <Phi> = 0
    <c0> = 0
    <c0i> = 0
    <c1> = 0
    <c1i> = 0
    <Mu_ssd> = 0
    <Sigma_ssd> = 0
    <innerangle> = 0
    <outerangle> = 0
  <EndBdry>
[BlockProps]  = 3
  <BeginBlock>
    <BlockName> = "Neodymium Magnets N35"
    <Mu_x> = 1
    <Mu_y> = 1
    <H_c> = 0
    <H_cAngle> = 0
    <J_re> = 0
    <J_im> = 0
    <Sigma> = 0
    <d_lam> = 0
    <Phi_h> = 0
    <Phi_hx> = 0
    <Phi_hy> = 0
    <LamType> = 0
    <LamFill> = 1
    <NStrands> = 0
    <WireD> = 0
    <BHPoints> = 0
  <EndBlock>
  <BeginBlock>
    <BlockName> = "Air"
    <Mu_x> = 1
    <Mu_y> = 1
    <H_c> = 0
    <H_cAngle> = 0
    <J_re> = 0
    <J_im> = 0
    <Sigma> = 0
    <d_lam> = 0
    <Phi_h> = 0
    <Phi_hx> = 0
    <Phi_hy> = 0
    <LamType> = 0
    <LamFill> = 1
    <NStrands> = 0
    <WireD> = 0
    <BHPoints> = 0
  <EndBlock>
  <BeginBlock>
    <BlockName> = "N35"
    <Mu_x> = 1.05
    <Mu_y> = 1.05
    <H_c> = 905659
    <H_cAngle> = 0
    <J_re> = 0
    <J_im> = 0
    <Sigma> = 0.66700000000000004
    <d_lam> = 0
    <Phi_h> = 0
    <Phi_hx> = 0
    <Phi_hy> = 0
    <LamType> = 0
    <LamFill> = 1
    <NStrands> = 0
    <WireD> = 0
    <BHPoints> = 0
  <EndBlock>
[CircuitProps]  = 0
[NumPoints] = 82
-780	400	0	0
580	400	0	0
580	-330	0	0
-780	-320	0	0
-21	6	0	0
-21	3	0	0
-21	8	0	0
-18	8	0	0
-18	3	0	0
-18	6	0	0
-28	6	0	0
-28	3	0	0
-23	6	0	0
-23	3	0	0
-16	6	0	0
-16	3	0	0
-11	6	0	0
-11	3	0	0
-9	8	0	0
-9	3	0	0
-6	3	0	0
-6	8	0	0
-4	6	0	0
-4	3	0	0
1	6	0	0
1	3	0	0
3	3	0	0
3	8	0	0
6	8	0	0
6	3	0	0
8	6	0	0
8	3	0	0
15	3	0	0
15	8	0	0
18	8	0	0
18	3	0	0
20	3	0	0
20	6	0	0
25	6	0	0
25	3	0	0
18	-3.0000000000000027	0	0
18	-2.6645352591003757e-015	0	0
18	-5.0000000000000018	0	0
15	-5.0000000000000018	0	0
15	-2.2204460492503131e-015	0	0
15	-3.0000000000000018	0	0
25	-3.0000000000000036	0	0
25	-3.5527136788005009e-015	0	0
20	-3.0000000000000027	0	0
20	-2.6645352591003757e-015	0	0
13	-3.0000000000000018	0	0
13	-1.7763568394002505e-015	0	0
8	-3.0000000000000018	0	0
8	-1.3322676295501878e-015	0	0
5.9999999999999982	-5.0000000000000018	0	0
6	-8.8817841970012523e-016	0	0
3	-8.8817841970012523e-016	0	0
2.9999999999999991	-5	0	0
0.99999999999999911	-3.0000000000000009	0	0
0.99999999999999956	-4.4408920985006262e-016	0	0
-4.0000000000000009	-3	0	0
-4	0	0	0
-6	4.4408920985006262e-016	0	0
-6.0000000000000009	-5	0	0
-9	-4.9999999999999991	0	0
-9	8.8817841970012523e-016	0	0
-16	1.7763568394002505e-015	0	0
-16	-2.9999999999999982	0	0
-18	1.7763568394002505e-015	0	0
-18	-4.9999999999999982	0	0
-21	-4.9999999999999973	0	0
-21	2.2204460492503131e-015	0	0
-23	2.6645352591003757e-015	0	0
-23	-2.9999999999999973	0	0
-28	-2.9999999999999964	0	0
-28	3.1086244689504383e-015	0	0
-11	0	0	0
-11	-3	0	0
13	6	0	0
13	3	0	0
25	1.5	0	0
-28	1.5	0	0
[NumSegments] = 80
0	1	-1	0	0	0
2	1	-1	0	0	0
3	2	-1	0	0	0
0	3	-1	0	0	0
5	4	-1	0	0	0
5	8	-1	0	0	0
6	4	-1	0	0	0
7	6	-1	0	0	0
8	9	-1	0	0	0
9	7	-1	0	0	0
10	11	-1	0	0	0
13	12	-1	0	0	0
10	12	-1	0	0	0
11	13	-1	0	0	0
15	17	-1	0	0	0
14	16	-1	0	0	0
14	15	-1	0	0	0
16	17	-1	0	0	0
19	20	-1	0	0	0
20	21	-1	0	0	0
21	18	-1	0	0	0
18	19	-1	0	0	0
23	22	-1	0	0	0
22	24	-1	0	0	0
25	24	-1	0	0	0
23	25	-1	0	0	0
26	29	-1	0	0	0
26	27	-1	0	0	0
27	28	-1	0	0	0
29	28	-1	0	0	0
31	79	-1	0	0	0
30	78	-1	0	0	0
37	38	-1	0	0	0
36	39	-1	0	0	0
30	31	-1	0	0	0
33	32	-1	0	0	0
34	35	-1	0	0	0
32	35	-1	0	0	0
33	34	-1	0	0	0
37	36	-1	0	0	0
38	39	-1	0	0	0
41	40	-1	0	0	0
41	44	-1	0	0	0
42	40	-1	0	0	0
43	42	-1	0	0	0
44	45	-1	0	0	0
45	43	-1	0	0	0
46	47	-1	0	0	0
49	48	-1	0	0	0
46	48	-1	0	0	0
47	49	-1	0	0	0
51	53	-1	0	0	0
50	52	-1	0	0	0
50	51	-1	0	0	0
52	53	-1	0	0	0
55	56	-1	0	0	0
56	57	-1	0	0	0
57	54	-1	0	0	0
54	55	-1	0	0	0
59	58	-1	0	0	0
58	60	-1	0	0	0
61	60	-1	0	0	0
59	61	-1	0	0	0
62	65	-1	0	0	0
62	63	-1	0	0	0
63	64	-1	0	0	0
65	64	-1	0	0	0
73	74	-1	0	0	0
72	75	-1	0	0	0
67	66	-1	0	0	0
69	68	-1	0	0	0
70	71	-1	0	0	0
68	71	-1	0	0	0
69	70	-1	0	0	0
73	72	-1	0	0	0
74	75	-1	0	0	0
76	66	-1	0	0	0
77	67	-1	0	0	0
76	77	-1	0	0	0
78	79	-1	0	0	0
[NumArcSegments] = 0
[NumHoles] = 0
[NumBlockLabels] = 19
-17.600000000000001	24	2	-1	0	0	0	1	0
-26	4	3	-1	0	90	0	1	0
-20	6	3	-1	0	0	0	1	0
-13	4	3	-1	0	-90	0	1	0
-8	6	3	-1	0	-180	0	1	0
-2	4	3	-1	0	90	0	1	0
5	5	3	-1	0	0	0	1	0
11	5	3	-1	0	-90	0	1	0
23	4	3	-1	0	90	0	1	0
22	-2.0000000000000036	3	-1	0	-90	0	1	0
16	-4.0000000000000027	3	-1	0	-180	0	1	0
9	-2.0000000000000018	3	-1	0	-270	0	1	0
3.9999999999999991	-4.0000000000000009	3	-1	0	0	0	1	0
-2.0000000000000004	-2	3	-1	0	-90	0	1	0
-26	-1.9999999999999973	3	-1	0	-90	0	1	0
-19.399999999999999	-2	3	-1	0	0	0	1	0
-12.9	-1.2	3	-1	0	90	0	1	0
-7.5999999999999996	-2.3999999999999999	3	-1	0	-180	0	1	0
16	5	3	-1	0	180	0	1	0
